21
A1D0_1 structure. #1 is excited atom
O -0.22545 -0.18402 0.17433
O -0.92581 1.13098 -1.81367
H -1.10698 0.76098 -2.69667
H -0.12816 1.68398 -1.94667
H -0.67032 -0.96992 0.47733
H -0.55514 0.08098 -0.66067
O -0.51898 -3.48152 0.01833
H 0.25974 -2.87942 0.11033
H -1.13188 -3.11452 -0.60867
O 2.06904 -2.34862 -0.32067
H 2.66834 -2.97212 0.10533
H 2.43524 -1.44312 -0.26167
O 2.47804 0.54998 0.36633
H 1.53624 0.52998 0.41633
H 2.57974 1.09998 -0.46167
O 0.36174 2.23798 2.43833
H -0.16136 1.73998 1.81333
H 1.07754 1.58798 2.69733
O -3.29446 2.07498 -0.65167
H -3.44176 2.62798 -1.40667
H -2.47436 1.58898 -0.93167
