15
A1D0_3 structure. #1 is excited atom
O 0.18018 -0.79503 -0.91808
O 3.16818 0.63970 -1.64358
H 2.42008 0.10430 -1.39208
H 3.07138 1.54300 -1.33778
O -1.41882 2.34400 -1.31508
H -2.30932 2.30090 -0.91118
H -1.30062 1.37270 -1.44308
O 0.30608 -0.35945 2.01942
H 0.20968 0.04803 2.90102
H 1.26078 -0.52256 1.86852
H -0.32132 -0.51046 -0.15248
H 0.23458 -1.74562 -0.89038
O -2.18502 -1.77762 1.66432
H -2.64122 -2.07250 2.48102
H -1.42742 -1.33717 1.93992
