12
A1D0_2 structure. #1 is excited atom
O -0.13200 1.38659 -1.07641
O -1.17880 -1.19151 -1.27571
H -0.79110 -2.04641 -1.58011
H -2.14840 -1.40751 -1.36911
H -0.11500 0.68959 -1.67301
H -0.64020 0.99959 -0.35721
O 1.86930 1.37159 0.84139
H 2.77650 1.56959 0.55139
H 1.34170 1.45659 0.07569
O -0.55040 -1.45501 1.64339
H -0.94320 -1.44671 0.76139
H 0.39080 -1.58711 1.48539
