15
A1D1_21 structure. #1 is excited atom
O 0.71653 1.19530 -0.66156
O 0.93949 0.81130 2.09174
H 1.46911 1.40630 2.59374
H 0.98200 0.02070 2.60374
O 1.37031 -2.09110 -1.24616
H 1.85571 -2.39280 -2.01166
H 1.98421 -2.29050 -0.47626
H 1.01063 0.85730 0.17474
H 1.06636 0.54730 -1.25526
O -1.38169 -1.26520 0.21774
H -0.54223 -1.57410 -0.26526
H -1.46909 -0.33560 -0.08526
O -1.83749 1.39330 -0.36926
H -0.93029 1.59130 -0.65926
H -2.36509 1.47830 -1.13496
