24
A1D1_10 structure. #1 is excited atom
O -0.63026 -0.12144 -1.00041
H -1.12535 0.67756 -0.85201
H -0.20956 -0.31334 -0.18111
O 1.27534 -2.15884 -2.04671
H 0.94214 -2.96024 -2.42131
H 0.67294 -1.49584 -2.24941
O 0.78424 2.44636 1.56279
H 1.55284 2.91906 1.70579
H 1.06684 1.47606 1.64479
O -2.09459 0.43376 2.03779
H -1.22130 0.37596 1.71779
H -2.27315 1.22266 2.50479
O -0.54226 3.05526 -0.84211
H -0.05686 2.75356 -1.60761
H 0.07164 2.85586 -0.07221
O 2.63544 -1.65684 0.17679
H 1.93664 -2.01364 -0.55061
H 3.44204 -1.32414 -0.27281
O -2.70465 -1.88954 -1.58491
H -3.00556 -2.78244 -1.76031
H -1.79237 -1.86684 -1.85681
O 1.08874 -0.03594 1.71579
H 1.72564 -0.57124 1.25979
H 1.25774 -0.10874 2.68879
