12
A1D1_1 structure. #1 is excited atom
O 0.08630 -0.64999 0.87854
H 0.71740 0.00811 0.75554
H -0.68750 -0.09319 0.81254
O 1.63690 1.77401 0.72554
H 1.99410 2.52971 1.16654
H 2.39814 1.36611 0.31254
O -0.81910 -3.08271 -0.06246
H -0.30970 -2.22523 0.02254
H -0.18620 -3.58058 -0.58946
O -1.07970 1.86331 -1.48046
H -0.66610 0.99221 -1.57046
H -0.47320 2.51711 -1.88046
