18
A1D1_12 structure. #1 is excited atom
O -1.23081 -0.10496 1.00589
O -2.78141 -2.52896 1.15889
H -2.15031 -1.87086 1.03589
H -3.55521 -1.97216 1.09289
O 0.98557 2.97104 1.11189
H 1.76429 3.57314 1.20389
H 0.37267 3.33804 0.48489
H -0.87361 0.65074 1.44689
H -0.46957 -0.51286 0.59289
O 2.27679 0.46814 0.25789
H 1.88259 1.34424 0.51189
H 2.72929 0.31164 1.15989
O 0.35488 0.65674 -2.60311
H 0.66468 0.17284 -1.84111
H 1.02061 1.31474 -2.83211
O 0.25658 -1.60136 -0.96211
H -0.35042 -2.15346 -1.41011
H 1.16174 -1.98436 -0.95911
