18
A1D1_25 structure. #1 is excited atom
O 0.34680 0.10503 -0.03000
O -1.55870 2.16869 0.02800
H -1.36370 2.55431 -0.83100
H -0.74170 1.65463 0.27500
O 2.64170 -0.83857 -1.69800
H 2.51290 0.01743 -1.26700
H 1.72530 -1.22487 -1.70500
O -0.32080 -2.96337 -0.80500
H -0.57220 -3.01477 0.12100
H 0.47660 -3.50707 -0.90800
O 1.82520 2.07038 2.36900
H 1.70690 2.65030 3.13600
H 2.74410 2.01254 2.12100
H -0.13500 -0.67127 -0.15400
H 0.85540 -0.04697 0.77400
O -3.06170 -0.51577 0.08100
H -2.43970 0.28563 -0.06400
H -2.74570 -1.12917 -0.62500
