27
A1D1_15 structure. #1 is excited atom
O 0.34369 0.08610 -0.99029
O -1.96021 0.55765 1.81831
H -2.04091 0.94255 0.92531
H -1.65851 -0.34873 1.69731
O -0.02341 -1.15000 2.09031
H -0.22241 -1.87285 2.74031
H 0.06959 -0.40013 2.72831
H 0.24729 0.49358 -0.10869
H 1.29839 -0.07701 -1.14119
O -2.23731 2.30705 -0.57769
H -2.93611 1.95025 -1.30509
H -1.43071 2.63975 -1.02729
O 2.86659 0.40956 0.55531
H 3.24469 1.04285 -0.03369
H 3.55129 0.09301 1.14931
O 0.76999 2.10035 1.18631
H 0.31679 1.86595 2.03031
H 1.56379 1.48595 1.18831
O 0.21779 -0.34948 -3.92779
H -0.28371 -0.06491 -3.16219
H 0.27219 -1.30007 -3.90009
O 2.11299 -2.55925 1.03231
H 1.48759 -1.82325 1.08431
H 1.42329 -3.21865 1.25031
O -2.14741 -1.33207 -1.34539
H -2.60361 -1.62695 -0.52869
H -1.38981 -0.89162 -1.06979
