27
A1D1_22 structure. #1 is excited atom
O 0.44605 -11.61957 0.21743
O -1.22185 -8.62277 1.30943
H -0.45055 -8.36707 0.71243
H -1.60605 -7.79507 1.59643
O 1.07785 -10.19047 -2.63957
H 1.80795 -10.25957 -3.28157
H 0.46505 -9.61527 -3.13657
H -0.35455 -11.60457 0.71443
H 0.79045 -10.72457 0.11243
O 0.96215 -8.19147 -0.61857
H 0.61865 -7.27717 -0.76457
H 0.67295 -8.74527 -1.34157
O -2.48105 -11.07057 1.38043
H -2.08325 -10.14407 1.54543
H -2.64785 -11.55857 2.17443
O 2.92095 13.17043 1.04743
H 2.02465 13.57943 0.98043
H 2.95455 12.51243 1.82443
O -1.15975 11.31143 1.31443
H -2.10155 11.29143 1.36443
H -1.05805 11.86143 0.48643
O 1.56675 12.06343 -1.25357
H 0.91475 12.73043 -1.37057
H 2.10505 12.33443 -0.49557
O -1.99525 12.82943 -0.71557
H -2.16675 13.67243 -0.20357
H -1.72395 13.19043 -1.58157
