21
A1D1_6 structure. #1 is excited atom
O -0.20067 -0.23749 -1.42579
O 2.00983 0.92681 -2.62609
H 2.35413 1.42051 -3.41049
H 1.99083 1.58661 -1.91639
H 0.19803 -0.00639 -2.26949
H 0.49973 -0.33859 -0.77459
O -3.03477 -1.08179 -1.27859
H -2.04837 -0.78779 -1.46509
H -3.17307 -1.99579 -1.38159
O -0.23237 2.78431 0.28841
H -0.43897 3.12051 1.17641
H -0.65707 1.93151 0.11241
O 1.87773 0.16841 0.66441
H 2.44363 0.83291 0.25741
H 2.45263 -0.41369 1.18741
O -0.55857 0.17531 2.14441
H 0.31293 0.49501 1.94341
H -0.51857 -0.29319 2.98041
O -0.02127 -2.74179 2.21841
H -0.71237 -3.41579 2.25141
H -0.16257 -2.03679 1.54441
