15
A1D1_24 structure. #1 is excited atom
O 0.27606 0.28058 1.89732
O -0.34564 -2.89372 -0.50668
H 0.51356 -3.03812 -0.97568
H 0.05536 -2.46652 0.28132
O -1.99944 1.39928 0.42232
H -2.23424 0.64428 -0.19068
H -1.21964 1.15958 0.89232
H 0.91976 0.66898 2.47432
H 0.71876 0.29658 1.00032
O 2.10256 1.49178 -0.03568
H 2.07546 2.06228 0.72632
H 1.33146 1.69718 -0.63868
O -0.09514 -0.27952 -1.77768
H -0.86844 0.06378 -2.24168
H -0.31394 -1.06242 -1.32168
