12
A1D1_34 structure. #1 is excited atom
O 0.79782 -0.36393 -0.70526
O 1.62682 -0.81243 1.95354
H 1.21442 -0.44173 2.68054
H 1.03702 -0.71413 1.16054
O -2.11568 -1.31643 -0.44596
H -2.84588 -1.95523 -0.33746
H -1.27298 -1.71373 -0.18146
O -0.30888 2.45495 -0.86116
H -0.76508 2.16007 -0.04446
H 0.44872 2.89540 -0.58556
H 1.74862 -0.15483 -0.84326
H 0.43412 0.52487 -0.91526
