18
A1D1_19 structure. #1 is excited atom
O -12.85028 -8.43036 -0.49723
O 12.51572 14.39964 0.10477
H 13.00872 13.78064 -0.53923
H 11.61772 14.29264 -0.30523
O 11.38572 -6.62926 -2.32293
H 10.49342 -7.03206 -2.44373
H 11.68372 -7.18996 -1.64913
H -12.03228 -8.06536 -0.91423
H -13.01728 -9.32836 -0.67223
O -10.82028 15.06464 1.28377
H -10.13628 14.49864 0.80677
H -11.54028 15.02364 0.71577
O 11.02672 -8.21736 2.55277
H 10.44012 -9.00036 2.73477
H 11.42772 -8.42636 1.67877
O -11.19828 -6.03666 -0.94523
H -11.60528 -5.72856 -1.76943
H -11.28128 -5.21546 -0.43523
