18
A1D1_23 structure. #1 is excited atom
O 0.76269 0.36660 -1.00169
O -1.80841 -0.53726 2.06531
H -2.37624 -1.29566 2.15131
H -2.02944 -0.18759 1.19921
O -0.51831 -2.72916 -0.61999
H -0.75524 -3.44086 -1.15349
H 0.12009 -2.92086 0.04711
O 1.41029 2.94734 -0.65519
H 1.07709 2.14594 -1.02979
H 0.80789 3.61034 -0.85789
H 1.44649 -0.12932 -0.50749
H -0.05761 -0.18101 -0.97529
O -2.59088 0.32209 -0.60149
H -2.60981 -0.49216 -1.13559
H -3.48111 0.27105 -0.23399
O 2.86029 -0.18978 0.80061
H 2.40409 -0.48466 1.61731
H 3.61789 0.25067 1.07621
