12
A1D1_16 structure. #1 is excited atom
O 6.76205 0.40232 -1.15929
O 4.33765 -1.76978 -0.06319
H 3.71785 -1.58478 -0.79809
H 4.58355 -0.91078 0.28841
O 6.36205 2.76422 0.62941
H 6.49905 2.39132 -0.31839
H 6.76005 3.62592 0.68841
H 5.86975 -0.00048 -1.28009
H 7.06005 -0.15838 -0.48549
O -17.47395 -1.39878 0.66641
H -16.65595 -1.03378 0.24941
H -17.64095 -2.29678 0.49141
