18
A1D1_17 structure. #1 is excited atom
O 0.78355 -0.46675 0.72650
H 1.02425 -1.29285 1.17450
H -0.07295 -0.67555 0.27750
O -1.85335 1.83515 -0.12750
H -2.24755 2.71125 0.12650
H -1.40085 1.67865 0.77450
O 0.32065 1.50425 -1.91550
H 0.27315 1.99245 -2.72750
H -0.51245 1.62595 -1.36450
O -1.27485 -1.34005 -1.03450
H -1.61475 -2.24702 -1.03450
H -0.58265 -1.36605 -1.71950
O 0.09705 1.57995 2.28050
H -0.06935 1.16765 3.16150
H 0.46885 0.83685 1.74050
O 1.94825 -3.02920 0.09250
H 1.62655 -3.24886 -0.75450
H 2.76945 -2.50593 -0.00350
