18
A1D1_26 structure. #1 is excited atom
O -0.33727 0.47457 -0.49756
O -2.84878 -1.99319 0.51194
H -3.50718 -2.72258 0.62634
H -2.44768 -1.93370 1.39914
O 1.73712 2.24267 0.08694
H 1.24203 3.04167 0.23534
H 2.15782 2.05077 0.90624
O 3.64272 0.20527 -0.95936
H 3.30952 -0.59613 -1.33396
H 3.04032 0.86827 -1.16206
O -0.35845 -2.41998 -0.90566
H -0.37738 -3.23423 -1.43976
H -1.24868 -2.47102 -0.53816
H -0.63818 -0.41833 -0.67296
H 0.57501 0.49727 -0.76946
O -1.81658 1.60437 1.72614
H -1.13888 2.10927 2.21914
H -1.26488 1.00407 1.12614
