15
A1D2_19 structure. #1 is excited atom
O 0.18710 0.64345 -0.86442
O 2.92150 1.33585 -0.68212
H 3.30920 0.48095 -0.98652
H 1.95190 1.11985 -0.77552
H -0.22730 -0.13165 -1.22782
H 0.17190 0.30295 -0.00762
O -2.89830 0.62445 1.27798
H -2.07730 0.65405 0.75788
H -2.68230 0.43865 2.22598
O 0.83300 -0.72235 1.63698
H 1.65010 -1.14905 1.77998
H 0.25470 -0.95035 2.37298
O -1.05840 -1.67735 -1.39822
H -1.79880 -1.72835 -2.03312
H -0.31220 -2.27615 -1.63332
