15
A1D2_5 structure. #1 is excited atom
O -0.99824 -0.14496 -0.99052
O 2.87976 1.21004 0.47848
H 2.31193 0.45164 0.56448
H 2.65873 1.55971 -0.38762
H -0.15254 -0.54196 -0.81612
H -1.54774 -0.58576 -0.33452
O -2.51214 -2.05126 0.80748
H -2.25284 -2.03696 1.70948
H -3.42064 -1.70086 0.77248
O 1.07586 -1.37076 0.32848
H 1.89826 -1.92636 0.20448
H 0.71946 -1.75176 1.15748
O -0.39304 2.49618 -0.77072
H -1.05144 1.76679 -0.65632
H 0.00806 2.55567 0.11648
