18
A1D2_22 structure. #1 is excited atom
O -0.15488 -0.14948 1.21471
O -0.84568 2.42572 0.60471
H -1.80608 2.53342 0.66071
H -0.69068 1.47672 0.83171
O 2.37302 1.08772 1.56571
H 2.22802 1.85382 2.17371
H 3.08802 0.61262 2.01871
O -3.14108 -1.71248 0.32371
H -2.81028 -0.89078 -0.12829
H -4.05578 -1.87698 -0.10129
O 0.59702 -1.86228 -0.89129
H 0.07312 -2.66278 -0.74229
H 1.52002 -2.14268 -0.88229
O 1.17802 0.26882 -2.87429
H 0.69902 1.11242 -2.87929
H 0.81802 -0.33138 -2.14329
H 0.72702 0.11002 1.56571
H 0.10742 -0.71578 0.52671
