18
A1D2_16 structure. #1 is excited atom
O -0.17974 -0.27462 0.21858
O -1.76114 1.17408 2.58758
H -2.38564 0.50548 2.86758
H -0.87714 0.68498 2.41058
H 0.15106 0.54708 -0.23342
H -1.09444 -0.43912 -0.20642
O -2.64584 -1.39602 -1.30642
H -2.69334 -0.90782 -2.11842
H -3.47894 -1.27432 -0.75542
O 0.14156 1.52478 -2.32542
H -0.49994 2.19658 -1.98742
H 0.81726 2.13858 -2.61942
O 2.80646 1.28838 1.10958
H 3.68836 1.54788 1.46058
H 3.06876 0.72208 0.42158
O 1.69386 -2.40482 -0.18342
H 1.17826 -1.65572 0.14758
H 1.25026 -2.66532 -0.98242
