15
A1D2_24 structure. #1 is excited atom
O -0.51248 0.69369 -0.60024
O -1.93448 1.39029 1.86566
H -1.44558 2.21859 2.03966
H -1.52898 0.56519 2.30666
O 1.69932 -2.20741 -0.17514
H 2.35802 -2.87251 -0.39694
H 1.79272 -1.49561 -0.79504
O 1.56122 2.39139 -0.43854
H 2.11362 2.13779 0.30316
H 0.82332 1.78219 -0.37864
O -0.88148 -2.14691 -0.67604
H -1.27048 -2.29591 -1.51704
H -0.00498 -2.56861 -0.61714
H -0.60408 -0.30491 -0.68194
H -1.15578 0.91229 0.12276
