15
A1D2_14 structure. #1 is excited atom
O 0.09715 -0.09252 -0.02789
O -1.22965 2.00988 -2.61199
H -0.75955 1.24738 -2.24939
H -0.62805 2.77728 -2.55149
O 2.15765 -1.93258 0.53781
H 1.49925 -2.66197 0.65221
H 2.55875 -1.87309 1.42501
O -1.75965 -2.06862 1.21901
H -1.74355 -2.73587 0.50591
H -1.38885 -2.52175 1.99401
H -0.36215 -0.82422 0.50661
H 1.00475 -0.48752 -0.06249
O 0.61575 2.31028 0.77601
H 0.16915 1.49648 0.55151
H 1.53505 1.98928 0.92731
