15
A1D2_23 structure. #1 is excited atom
O 0.19690 -4.88817 -0.70624
O 2.15050 -3.41647 0.69276
H 2.58910 -4.20007 0.96076
H 2.85030 -2.96047 0.24776
O -2.65890 -3.73227 -0.94724
H -3.06590 -3.42417 -1.77144
H -2.74190 -2.91107 -0.43724
H 0.96370 -4.38567 -0.36824
H -0.50800 -4.20487 -0.79824
O -0.88890 -6.21897 1.69376
H -0.54010 -5.85797 0.84376
H -1.35290 -6.99897 1.37876
O 1.15490 18.10303 -0.67024
H 1.45380 18.50203 0.18376
H 1.07380 18.86703 -1.23674
