15
A1D2_15 structure. #1 is excited atom
O 4.77926 -0.37703 0.03586
O -17.61474 0.55847 0.88686
H -17.07874 1.39457 1.04886
H -18.48774 0.80587 0.47186
O 1.96046 -0.00223 0.39786
H 1.66956 0.80587 0.80386
H 2.93136 -0.06173 0.46786
O 5.71726 2.43637 0.42686
H 5.29226 2.60077 1.27186
H 5.47426 3.11907 -0.20914
H 4.91626 -0.74993 -0.91194
H 5.17726 0.48467 0.09486
O 5.17926 -2.73893 -1.75284
H 4.28696 -3.14173 -1.87364
H 5.47726 -3.29963 -1.07904
