15
A1D2_25 structure. #1 is excited atom
O 0.31887 -10.06538 0.85190
O -1.70803 13.28262 0.58990
H -1.06473 13.42962 -0.12810
H -1.37913 13.86562 1.31190
O 2.54564 -8.45778 -0.18610
H 2.84560 -7.57608 -0.01610
H 3.45135 -8.87228 -0.19710
O -2.04593 -8.82008 0.03090
H -1.16943 -9.19838 0.33790
H -2.34803 -9.45238 -0.62810
H 0.98627 -9.37238 0.76990
H 0.61537 -10.76138 0.18290
O 0.64387 14.04662 -1.17610
H 0.49657 14.59962 -1.93110
H 1.46397 13.56062 -1.45610
