15
A1D2_10 structure. #1 is excited atom
O -0.56591 0.22889 1.29032
O -2.77611 1.20019 -0.19068
H -3.67561 0.79539 -0.00668
H -2.08221 0.82599 0.47232
H -0.26081 -0.76091 1.31132
H 0.21009 0.59149 0.77332
O 0.78879 -1.05881 -1.53568
H 1.23169 -0.81371 -2.35768
H 0.00999 -0.47951 -1.59468
O 1.14699 1.53759 -0.61368
H 1.29359 2.49879 -0.49468
H 1.92699 1.05539 -0.55568
O 1.27429 -1.93301 1.11032
H 2.19469 -1.70941 1.30632
H 1.24619 -1.60451 0.18432
