18
A1D2_8 structure. #1 is excited atom
O 0.28167 0.19272 0.37203
O 3.08527 0.10632 -1.43297
H 2.12487 0.21402 -1.37697
H 3.24027 -0.84268 -1.20597
O -0.79153 -2.58318 0.65503
H -1.41603 -3.25178 0.93503
H 0.09247 -3.07228 0.47803
H -0.25343 -0.59538 0.68003
H -0.43163 0.72702 -0.10497
O -2.55343 -1.18658 -0.93597
H -1.95413 -1.81008 -0.50997
H -2.18723 -0.28108 -0.87697
O -2.14443 1.71202 -0.24897
H -3.08623 1.69202 -0.19897
H -2.04273 2.26202 -1.07697
O 2.18847 1.90402 1.58903
H 1.84907 1.05902 1.24203
H 3.01717 1.59302 2.04403
