15
A1D2_3 structure. #1 is excited atom
O 0.09217 0.63436 0.86322
H -0.48973 -0.13574 0.76222
H 0.98557 0.27876 0.99522
O 0.10347 -1.85074 -1.89578
H 0.31097 -1.01774 -2.30478
H -0.78073 -1.74974 -1.40278
O -1.89473 -1.22274 0.15322
H -2.79873 -0.93174 -0.14478
H -2.10673 -2.13674 0.45622
O -1.15773 2.51606 -0.72678
H -0.73673 1.79916 -0.20978
H -1.76773 2.94236 -0.10478
O 2.89947 -0.04894 1.52922
H 3.05847 0.52136 2.28022
H 3.64877 -0.01414 0.89322
