15
A1D2_12 structure. #1 is excited atom
O 0.15809 0.28379 -0.44067
O 0.43319 -2.53911 -1.17427
H 1.34519 -2.73491 -1.26927
H 0.36229 -2.85011 -0.24257
H 0.54579 -0.57111 -0.74507
H -0.81151 0.06779 -0.53407
O 1.20489 2.86189 -0.24137
H 1.22189 2.16489 -0.83797
H 0.69669 2.47489 0.47783
O -2.57631 -0.40861 -0.62297
H -2.99071 -1.18371 -0.98637
H -2.59151 -0.74911 0.23383
O 0.78649 0.02029 2.47843
H 0.39369 0.02859 1.59643
H 1.72769 -0.11181 2.32043
