18
A1D2_21 structure. #1 is excited atom
O -0.18667 -0.02899 -0.45054
O 0.14983 0.38001 2.83446
H -0.52397 0.12801 2.15546
H 1.01183 0.03101 2.59146
O -0.52547 2.74401 0.71046
H -0.06807 2.33701 1.52146
H -0.42167 1.94201 0.15946
O -2.18797 -0.01399 -2.36834
H -2.17097 -0.71099 -2.96494
H -2.69617 -0.40099 -1.64914
O 2.36735 -0.22699 -0.74284
H 2.66145 -0.56499 0.09346
H 2.71718 -0.87499 -1.33654
O 0.26913 -2.68749 0.13646
H 1.10859 -2.99639 -0.34654
H 0.18173 -1.75789 -0.16654
H 0.72053 0.16901 -0.74054
H -0.71427 0.05601 -1.21624
