15
A1D2_13 structure. #1 is excited atom
O -4.98475 -0.07368 0.94067
O 18.34425 -1.29408 0.40667
H 18.50825 -2.09208 -0.13233
H 17.51025 -0.97408 -0.00033
O -3.10475 -1.73078 -0.33233
H -2.57475 -2.52868 -0.32133
H -2.91505 -1.28308 -1.19933
H -5.85375 -0.45318 0.89167
H -4.24875 -0.61688 0.70867
O -5.98175 0.55542 -1.99933
H -5.61075 0.31372 -1.17433
H -5.35975 1.18952 -2.38133
O -4.35175 2.65612 1.03267
H -4.42975 1.63642 1.18867
H -3.77575 3.01512 1.65267
