21
A1D2_9 structure. #1 is excited atom
O 0.70660 0.47721 0.16077
O 0.90260 -0.34865 2.95077
H 1.87200 -0.30044 2.91877
H 0.45660 0.54235 3.19777
H 0.72270 -0.19004 -0.55233
H 1.07740 0.02408 0.93577
O -1.64540 2.01111 -0.19163
H -2.38490 1.82521 0.38877
H -0.85760 2.01251 0.30677
O 2.56340 2.45331 -1.08613
H 2.10410 1.72161 -0.55163
H 3.47100 2.05831 -1.12073
O -2.22490 -0.03588 -1.81553
H -1.78420 0.26881 -2.59733
H -1.91600 0.57934 -1.12273
O -0.22300 -1.94849 -1.45843
H -0.97280 -1.32979 -1.55113
H 0.05340 -2.20159 -2.31003
O -0.20830 -2.63809 1.41977
H -0.14340 -2.49349 0.50577
H 0.34970 -2.04849 1.87577
