18
A2D1_17 structure. #1 is excited atom
O 0.55426 0.00234 1.00690
O -1.91174 1.74534 0.32890
H -2.05674 2.51144 0.93690
H -1.19674 1.27024 0.78190
O -0.07874 -2.72746 0.91490
H -0.94774 -3.10696 0.86590
H 0.65726 -3.27066 0.68290
O 1.31826 3.33204 1.45490
H 2.09776 2.99864 1.00190
H 0.52726 2.93954 1.02190
O -1.07574 -2.09836 -2.02510
H -0.70474 -2.34006 -1.20010
H -0.45374 -1.46426 -2.40710
H 0.47626 -1.01736 1.16290
H 1.13026 0.36134 1.62690
O 1.06126 -0.21446 -1.77710
H 0.97526 -0.03086 -0.81410
H 1.59726 0.52294 -2.12710
