21
A2D1_6 structure. #1 is excited atom
O -4.02120 0.16463 0.30751
O 20.36380 2.15623 1.95451
H 20.52780 1.35823 1.41551
H 19.52980 2.47623 1.54751
O -1.44120 -1.35691 0.49351
H -1.24620 -0.97129 -0.36549
H -0.62420 -1.87097 0.74051
H -4.44020 -0.67918 0.20151
H -3.14920 -0.03205 0.72751
O -1.08520 1.71953 1.21551
H -0.55520 0.92163 1.22651
H -0.89550 2.16723 0.34851
O -5.18520 -1.96427 -2.21149
H -5.26720 -2.18737 -1.22449
H -5.37120 -2.79237 -2.66349
O -5.19420 -2.43097 0.27951
H -5.83120 -2.64357 0.98151
H -4.39820 -2.93377 0.42851
O -3.49320 1.88973 -2.05749
H -3.59320 1.56933 -1.13249
H -3.79120 2.79263 -1.93849
