15
A2D1_2 structure. #1 is excited atom
O 0.96796 -0.11257 -1.08980
H 1.87996 -0.30837 -1.18480
H 0.89706 -0.42357 -0.15810
O -1.11244 -1.68107 -1.99910
H -0.64234 -2.44357 -1.63650
H -0.51084 -0.91367 -1.93860
O 0.69286 2.71033 -0.35620
H 1.08056 1.85543 -0.66060
H -0.27674 2.49433 -0.44960
O -1.39564 0.65213 1.96290
H -0.57854 0.22543 2.10590
H -1.97394 0.42413 2.69890
O 0.73296 -1.38067 1.38890
H 0.28636 -2.19447 1.16440
H 1.65226 -1.70167 1.54020
