15
A2D1_5 structure. #1 is excited atom
O 0.04762 -0.02767 0.78951
H -0.57688 -0.69627 1.06951
H 0.93162 -0.51677 0.61251
O 1.12082 2.74823 0.50651
H 0.58572 1.96013 0.81451
H 0.40752 3.28253 0.02951
O 1.62902 -1.47637 -1.57949
H 1.95982 -0.65467 -2.03149
H 0.71432 -1.64087 -2.00449
O -1.71428 1.36893 -0.80149
H -1.11498 0.74543 -0.37549
H -1.34808 2.27443 -0.74249
O -1.06068 -2.52207 1.09151
H -1.22708 -2.93437 1.97251
H -0.68888 -3.26517 0.55151
