24
A2D1_20 structure. #1 is excited atom
O -0.44139 9.89431 0.64693
O 1.92726 8.95031 -0.51507
H 1.74609 8.58031 -1.39807
H 2.72491 9.50331 -0.64807
O -2.79329 9.13031 2.41293
H -2.14999 9.27731 1.69493
H -2.46439 9.71331 3.13493
O 2.62762 7.63531 1.47293
H 2.18275 6.84941 1.77593
H 2.29793 7.90031 0.63793
O -0.05629 8.08731 -2.23207
H -0.97329 8.39231 -2.30507
H -0.05289 7.16631 -1.85207
O -1.26669 -14.32069 -1.34707
H -2.17559 -14.34869 -1.10107
H -1.08659 -13.44869 -1.76607
O 0.75013 -15.15969 -2.98607
H 0.33601 -14.86369 -2.17407
H 0.69672 -16.13069 -2.88007
O -0.76639 -14.21769 2.67493
H -0.09899 -13.52469 2.59293
H -0.46989 -14.91369 2.00593
H -0.58869 10.44731 -0.10807
H 0.37871 9.40831 0.36693
