18
A2D1_9 structure. #1 is excited atom
O 0.54309 -0.03877 0.01021
O -1.64341 -0.56106 1.38461
H -1.39841 -0.67933 2.35861
H -2.14741 -1.32075 1.08161
O 2.89509 -1.57267 0.36261
H 2.91119 -2.23992 -0.35049
H 3.26589 -2.02580 1.13761
H -0.19641 -0.22467 0.59061
H 1.33089 -0.03737 0.50861
O -0.03641 -2.08576 -1.61369
H 0.40429 -1.78107 -2.39549
H 0.27249 -1.47054 -0.92089
O -2.38241 1.41223 -0.39179
H -2.01641 0.87813 -1.12299
H -2.26541 0.72353 0.27061
O 0.53409 3.01943 0.20861
H 0.68869 2.07673 0.17561
H 0.57859 3.34913 -0.70789
