24
A2D2_16 structure. #1 is excited atom
O 0.17550 0.28274 1.00870
H -0.05930 -0.47226 0.39570
H 0.95530 0.04304 1.47870
O -2.12370 1.05074 2.27970
H -1.34420 0.71734 1.82670
H -2.91470 0.65824 1.84670
O -0.54420 -0.38036 -1.75030
H -0.61470 -0.60586 -2.72630
H -1.09820 0.41514 -1.66330
O 1.94810 1.60474 -0.72730
H 1.98780 2.54874 -0.52830
H 1.14400 1.28374 -0.28530
O 2.45100 -0.83596 2.48370
H 3.09470 -0.44756 3.06070
H 2.89370 -0.81996 1.58670
O -1.62470 2.10174 -1.11630
H -1.27710 2.88474 -1.63730
H -1.32410 2.17974 -0.22230
O -2.38070 -2.49576 -0.95230
H -2.46670 -2.31216 0.01070
H -1.84470 -1.75836 -1.30230
O 2.07980 -1.39606 -1.19130
H 1.30650 -1.05276 -1.65530
H 1.86100 -2.17896 -0.73530
