18
A2D2_21 structure. #1 is excited atom
O 8.18294 0.23621 -0.37304
O 9.35594 2.83181 -0.34504
H 8.93694 1.98800 -0.45104
H 10.22794 2.63513 0.07496
O -15.98606 -2.59989 2.24596
H -15.64106 -1.96559 2.86196
H -15.72206 -2.21719 1.35896
O 8.19194 0.70291 -2.86404
H 8.10994 0.47981 -1.87704
H 8.00594 -0.12519 -3.31604
H 7.54594 0.02361 0.32896
H 8.97894 -0.26659 -0.22404
O 5.77494 0.29081 1.40996
H 5.32714 1.07028 1.52496
H 5.17794 -0.45349 1.29296
O -15.56706 -1.37419 -0.10604
H -14.94506 -0.57279 -0.25104
H -15.25106 -1.98759 -0.81204
