21
A2D2_41 structure. #1 is excited atom
O 0.13727 -3.11918 0.77714
O -0.63753 -4.56848 -1.66586
H -1.31363 -5.22248 -1.35386
H -0.96653 -3.90548 -2.25686
O 0.34157 -0.82598 -0.93586
H 0.29537 -1.69438 -0.41986
H 0.61567 -0.16058 -0.28586
O -2.44553 19.99952 -0.14986
H -2.09553 20.10452 0.73114
H -3.21353 20.57852 -0.16686
O 2.00177 -4.46748 -2.42386
H 1.09287 -4.49548 -2.17786
H 2.18187 -3.59548 -2.84286
H 1.01377 -3.49748 1.08414
H -0.16483 -3.75148 0.11814
O -1.92883 -2.70568 2.76714
H -1.76983 -2.13538 3.51814
H -1.17953 -2.67088 2.13114
O 2.50207 -4.36448 1.59814
H 3.16947 -3.67148 1.51614
H 2.79857 -5.06048 0.92914
