21
A2D2_34 structure. #1 is excited atom
O 0.66283 0.34642 0.57535
O 1.50127 -2.69658 0.42335
H 2.24237 -2.55138 -0.16265
H 0.73831 -2.78718 -0.15465
O 3.35767 1.01712 0.62435
H 2.45817 0.61232 0.80835
H 4.05157 0.64292 1.28735
O -2.78243 -0.60538 -0.15065
H -3.46443 -0.40158 -0.76465
H -2.76983 0.08792 0.49635
O -0.23793 -1.86078 -1.55765
H -1.06003 -1.54978 -1.92565
H 0.40302 -1.60398 -2.25365
O -1.79533 1.69392 1.55635
H -2.08033 2.60712 1.36835
H -1.30593 1.61172 2.39835
H -0.21123 0.70582 0.87035
H 0.42842 -0.38768 -0.02865
O -0.63083 2.08862 -1.40465
H -0.08063 1.66632 -0.76065
H -0.54323 1.61232 -2.23365
