18
A2D2_24 structure. #1 is excited atom
O -0.17017 0.98891 -0.91985
O 1.41153 -1.38649 -1.62335
H 0.93853 -0.63959 -1.22505
H 2.07353 -1.58569 -0.88725
O -0.17417 3.32521 0.24635
H -0.39577 4.18921 -0.04865
H -0.38617 2.67321 -0.44345
H 0.38223 0.73531 -0.17815
H -0.90807 0.37971 -0.85995
O 1.10753 0.16251 1.45535
H 2.05353 0.13021 1.51835
H 0.66333 0.45071 2.33535
O -2.24387 -0.70879 -1.08155
H -2.33547 -1.70739 -1.16325
H -2.88717 -0.49019 -0.35855
O 0.10473 -2.36339 1.83935
H 0.04543 -2.97819 1.07435
H 0.19123 -1.44219 1.56435
