24
A2D2_17 structure. #1 is excited atom
O -13.16449 6.23215 -0.03714
H -12.40149 5.81715 -0.48014
H -13.27949 7.06115 -0.49214
O -9.69699 3.16505 -1.52114
H -9.76749 2.93955 -2.49714
H -10.25099 3.96055 -1.43414
O -12.03949 7.21115 2.16486
H -11.70949 6.38215 2.49386
H -12.59549 6.97315 1.37486
O 10.69551 4.97115 -1.59114
H 11.41951 4.91515 -0.95014
H 10.32051 5.76815 -1.16914
O 11.04651 5.42315 2.66286
H 11.71251 5.94215 3.15886
H 10.74751 5.93715 1.86786
O -10.77749 5.64715 -0.88714
H -10.42989 6.43015 -1.40814
H -10.47689 5.72515 0.00686
O 12.28151 -17.35385 -1.48714
H 11.53651 -17.45585 -2.11014
H 12.80851 -16.64185 -1.78414
O 11.64551 -15.42735 0.84886
H 11.87651 -16.17285 0.16786
H 10.63951 -15.49545 0.82786
