21
A2D2_38 structure. #1 is excited atom
O -0.25453 0.03090 0.15272
O 0.65087 2.46362 1.09372
H 1.28197 3.12172 0.97072
H -0.12293 3.02042 1.02772
O 2.56597 1.22374 -2.38528
H 2.47087 0.29547 -2.12828
H 2.09947 1.31281 -3.18928
O -2.29243 -0.38854 -1.84928
H -1.76183 0.01184 -1.15928
H -3.02143 0.20150 -2.02828
O 0.72807 -1.79658 1.91372
H 0.44307 -0.88338 1.72572
H 1.21747 -1.87878 2.75572
O -3.39583 -0.25323 2.10372
H -3.51413 0.32669 2.87072
H -2.47693 -0.31107 1.85572
H 0.25487 0.88838 0.23772
H 0.37837 -0.46697 -0.37428
O 1.89257 -1.40188 -1.04728
H 2.44277 -1.82418 -0.40328
H 1.98017 -1.87818 -1.87628
