21
A2D2_42 structure. #1 is excited atom
O 0.12111 -0.06638 0.27772
O 0.35611 1.20172 -2.20098
H 1.26811 1.00592 -2.29598
H 0.28521 0.89072 -1.26928
O -1.72429 -0.36678 -3.11028
H -1.25419 -1.12928 -2.74768
H -1.12269 0.40062 -3.04978
O -0.39749 -2.46918 -0.52618
H -0.85679 -3.20088 0.00832
H 0.51011 -2.86418 -0.56078
O 0.74551 0.66362 3.37672
H -0.18589 0.59012 3.17672
H 1.15131 0.35962 2.50472
O 2.69521 -0.71168 1.25372
H 3.37291 -0.20678 1.74672
H 3.24691 -1.31198 0.65372
O -2.00749 1.96642 0.85172
H -1.19039 1.53972 0.99472
H -2.58579 1.73842 1.58772
H -0.32549 -0.88018 0.05322
H 1.04041 -0.38738 0.42902
