21
A2D2_10 structure. #1 is excited atom
O 3.73186 -0.15919 -1.21346
O -19.93414 -0.83389 0.54224
H -19.57114 -1.63289 0.12364
H -19.20414 -0.23359 0.44324
H 3.25886 0.58771 -0.81516
H 4.39386 -0.35839 -0.47736
O 5.82586 0.87621 -2.68806
H 4.91686 0.50631 -2.54166
H 5.87786 1.67861 -3.29116
O 2.28826 -2.38259 -0.24656
H 2.94696 -3.04769 -0.46836
H 2.38166 -1.67079 -0.86646
O 2.15016 2.21621 -0.50996
H 2.70256 1.96261 0.23174
H 1.41226 1.60701 -0.45006
O 3.42786 1.38981 1.86524
H 4.37386 1.35751 1.92824
H 2.98366 1.67801 2.74524
O 2.42506 -1.13609 2.24924
H 2.36576 -1.75089 1.48424
H 2.51156 -0.21489 1.97424
