24
A2D2_33 structure. #1 is excited atom
O -0.07155 3.00204 0.48989
O -2.77504 2.26804 0.29789
H -3.21991 1.48214 0.60089
H -3.10473 2.53304 -0.53711
O 2.35455 1.48274 1.11089
H 1.81945 0.69464 1.41889
H 1.64125 2.01704 0.63389
O -0.48055 0.10344 -0.19711
H 0.11875 -0.52006 0.22889
H -0.11435 1.00894 -0.13811
O 1.53425 -19.92896 -0.60711
H 0.73365 -19.91396 -0.11011
H 1.87865 -19.03396 -0.71211
H -1.01335 2.98204 0.53989
H 0.03015 3.55204 -0.33811
O 2.65495 3.75404 -2.07811
H 2.00295 4.42104 -2.19511
H 3.19325 4.02504 -1.32011
O -2.18785 4.69004 2.56189
H -2.71095 4.19204 1.93689
H -1.47205 4.04004 2.82089
O -0.90705 4.52004 -1.54011
H -1.07855 5.36304 -1.02811
H -0.63575 4.88104 -2.40611
