24
A2D2_20 structure. #1 is excited atom
O 0.03227 0.15418 0.08475
O 0.76737 -2.37102 -3.11405
H 0.01927 -2.90642 -2.86255
H 0.67057 -1.46772 -2.80825
O 1.74887 -1.77382 0.02735
H 2.53087 -1.30002 0.02985
H 1.93087 -2.67582 -0.26625
O 1.47587 2.37758 -0.88215
H 1.00287 3.12448 -0.48385
H 2.13787 2.17838 -0.14605
H 0.69097 -0.51092 -0.13705
H 0.12567 0.86598 -0.53515
O 0.42817 -3.04671 2.09455
H 0.80627 -2.41342 1.50555
H 1.11287 -3.36326 2.68855
O -2.54853 0.21468 -0.41615
H -2.93753 0.06568 -1.25715
H -1.67203 -0.20702 -0.35725
O -2.17953 3.05528 -0.34035
H -2.27113 2.05668 -0.42205
H -2.82283 3.27388 0.38265
O 0.16907 1.40068 2.58055
H 0.10977 0.78588 1.81555
H 0.25557 2.32188 2.30555
