24
A2D2_8 structure. #1 is excited atom
O -0.76559 0.07983 -0.60953
O 2.50721 -1.20631 0.63967
H 1.93938 -1.96471 0.72567
H 2.28618 -0.85664 -0.22643
O -1.37079 -2.56131 -0.82933
H -0.52509 -2.95831 -0.65493
H -1.92029 -3.00211 -0.17333
H -1.42399 -0.64956 -0.49513
H -0.36449 0.13932 0.27767
O 0.52291 0.60478 2.02967
H 0.55341 1.44269 2.50367
H 1.42751 0.35693 1.76567
O -2.82609 1.91989 -1.17523
H -3.28539 1.18819 -0.64073
H -1.91849 1.52489 -1.20983
O 1.72474 -0.34696 -2.02713
H 1.70581 -1.16121 -2.56123
H 0.83451 -0.39800 -1.65963
O 1.74592 2.54759 -1.61903
H 1.44501 1.65469 -1.79443
H 2.65820 2.57029 -1.89093
O -1.61409 -0.85001 3.52167
H -1.34929 -0.25632 4.24667
H -0.85999 -0.60647 2.88667
