24
A2D2_43 structure. #1 is excited atom
O -0.01432 -0.21437 0.00807
O -0.26922 2.07323 1.85507
H -0.96062 2.71123 1.88707
H -0.51862 1.48073 1.14907
O -0.64272 0.04913 -2.91103
H -0.25502 -0.80577 -3.21543
H -1.61232 -0.16687 -3.00443
O 0.40408 2.62723 -2.71173
H 0.42108 1.93023 -3.30833
H -0.10412 2.24023 -1.99253
O 2.86118 -0.04627 -0.20693
H 3.70064 -0.35517 -0.68993
H 2.77378 0.88333 -0.50993
O -2.73122 -2.00907 -0.59193
H -1.91412 -2.43577 -0.44893
H -3.30952 -2.23707 0.14407
O 2.34448 -1.52087 2.29807
H 2.30978 -0.95437 1.48307
H 1.44128 -1.71447 2.47407
O -1.84312 -0.87167 2.45807
H -1.43952 -0.88277 1.59807
H -2.78452 -0.52747 2.32007
H -0.40712 -0.20607 -0.87393
H 0.92688 -0.34647 -0.14993
