15
A2D2_13 structure. #1 is excited atom
O -0.13847 -0.32423 -0.28227
O -0.63607 2.19167 0.32573
H -0.37677 2.20597 1.22773
H -1.54457 2.54207 0.29073
H 0.41413 -0.68033 -0.94687
H -0.25777 0.61357 -0.39827
O 1.57223 0.80967 1.57573
H 2.30683 0.21287 1.77373
H 0.96333 0.26797 1.00773
O -2.19737 -1.83243 1.04973
H -1.75877 -2.61603 1.31773
H -1.49757 -1.37643 0.60473
O 1.29133 -0.81533 -2.60197
H 2.22493 -1.09713 -2.42077
H 1.24603 -0.53843 -3.51907
