15
A2D2_7 structure. #1 is excited atom
O -0.05551 -0.12100 0.44458
O 1.19439 -2.00270 2.03458
H 0.61249 -2.77280 1.93358
H 2.08779 -2.35830 2.16658
O -1.19151 -0.96480 -1.98442
H -0.70251 -0.34230 -1.44042
H -1.78251 -1.55110 -1.49642
H 0.36549 -0.83790 0.96158
H -0.66551 0.30530 1.06658
O -1.58651 2.18200 1.29458
H -1.24151 2.81630 1.91058
H -1.32251 2.56470 0.40758
O 1.57339 0.96010 -1.94342
H 1.32199 0.90870 -1.01742
H 2.37079 0.41640 -2.04642
