21
A2D2_35 structure. #1 is excited atom
O 11.25642 -3.28513 0.47958
O 7.80792 -1.13023 1.33558
H 6.91332 -0.83743 1.38658
H 7.85212 -2.06693 1.29358
O -13.06558 -1.11163 -1.26942
H -12.57658 -0.48913 -0.72542
H -13.65658 -1.69793 -0.78142
O -12.66658 -4.00663 2.03958
H -13.57058 -3.71563 1.74158
H -12.87858 -4.92063 2.34258
O -13.55358 18.37437 -0.40642
H -12.79058 17.95937 -0.84942
H -13.66858 19.20337 -0.86142
O 8.50772 -3.55863 -0.20042
H 7.95292 -4.31563 -0.11142
H 8.28202 -3.04123 -0.99642
O 11.89242 -5.21163 -1.85642
H 11.14742 -5.31363 -2.47942
H 12.41942 -4.49963 -2.15342
H 11.48742 -4.03063 -0.20142
H 10.25042 -3.35323 0.45858
