27
A2D2_19 structure. #1 is excited atom
O -0.15129 -0.32311 0.33112
O 0.12581 -2.07251 2.72712
H 0.04511 -1.68761 1.83412
H 0.42751 -2.97889 2.60612
O 1.48301 2.21449 2.37012
H 1.40111 2.26209 3.32812
H 1.91071 1.33399 2.18512
O 0.70481 0.15939 -3.41598
H -0.18569 0.11629 -3.01208
H 0.82301 -0.81191 -3.54398
O -3.41699 1.21229 -0.84608
H -3.91208 2.01129 -0.69768
H -2.99629 1.02039 -0.02678
O -1.51139 -0.82511 -1.89238
H -1.84459 -1.62651 -2.26698
H -2.11379 -0.16211 -2.09508
O 2.42971 -2.54406 -0.08148
H 2.33331 -2.13658 0.80012
H 3.38441 -2.70717 -0.23238
H -0.85009 -0.67991 -0.39628
H 0.65531 0.00959 -0.11848
O 1.97591 1.04079 -1.04658
H 1.58691 0.89179 -1.88758
H 2.85241 0.61909 -0.98768
O -1.69799 1.29779 1.87012
H -1.06109 0.76249 1.41412
H -1.52899 1.22499 2.84312
