15
A2D2_40 structure. #1 is excited atom
O -0.06987 -0.01285 0.51404
O 0.41066 2.78435 -0.07196
H 1.15176 2.92955 -0.65796
H -0.35230 2.69375 -0.64996
O -0.64835 0.18315 -2.61096
H -0.91954 1.08165 -2.49696
H -0.52803 -0.22075 -1.77096
O 2.47956 -1.41545 0.60804
H 2.87736 -0.48895 0.77304
H 2.31276 -1.90345 1.40204
H 0.23009 0.86885 0.68404
H 0.83584 -0.42735 0.50304
O -2.29664 -1.62045 1.55204
H -1.62924 -0.92745 1.47004
H -2.00014 -2.31645 0.88304
