24
A2D2_28 structure. #1 is excited atom
O -0.25679 0.49438 -0.11159
O 1.97701 -1.13582 -0.04059
H 1.97951 -1.54442 -0.92759
H 2.82341 -1.44332 0.38541
O -1.96969 -0.81432 1.79241
H -1.66459 -1.80412 1.81341
H -1.19369 -0.45172 1.27541
O -0.61499 -2.10202 -1.03359
H -0.17209 -1.85692 -1.85559
H -1.39379 -1.52272 -1.09259
O -1.57509 1.82728 -2.48859
H -2.50779 2.01848 -2.26959
H -1.34699 1.21388 -1.77159
O 2.99831 1.45598 0.66141
H 2.55051 2.23545 0.77641
H 2.40131 0.71168 0.54441
H -0.11019 1.45558 0.00741
H 0.52321 0.01218 -0.05359
O -0.12949 -2.97622 1.61241
H 0.79091 -2.75262 1.80841
H -0.15759 -2.64772 0.68641
O -0.55029 3.22673 -0.25759
H -0.87199 3.00707 -1.10459
H 0.27091 3.75000 -0.35359
