21
A2D2_39 structure. #1 is excited atom
O -0.46998 -0.53341 -0.31405
O 1.14472 -0.85551 2.51595
H 1.18042 -0.28241 3.29995
H 0.56142 -0.52241 1.86195
O -0.46098 -3.59161 -0.51245
H -1.20048 -3.77751 0.06795
H 0.32682 -3.59021 -0.01405
O -1.59348 2.63299 -0.38805
H -0.77248 2.66259 -0.90815
H -1.37748 2.44719 0.55995
O 2.13782 1.28619 -0.02905
H 2.95492 0.85949 0.11395
H 1.55952 1.05819 0.70695
O 0.24642 0.33119 -3.06425
H -0.49398 0.28019 -3.69915
H 0.99262 -0.26761 -3.29935
H -0.31538 -1.47611 -0.34705
H -0.42548 -0.20371 -1.23055
O -1.03848 0.85799 1.76695
H -0.78448 0.37879 0.97395
H -1.66648 0.40399 2.30995
