18
A2D2_27 structure. #1 is excited atom
O -0.19021 -0.43862 0.06556
O 2.56179 -1.26452 -1.39834
H 3.04719 -1.56622 -2.16384
H 3.17569 -1.46392 -0.62844
O 1.90801 2.02188 -0.81374
H 2.20211 1.68388 0.02256
H 2.25784 1.37388 -1.40744
H 0.64925 -0.74752 -0.41744
H -0.27761 0.49098 -0.23744
O -0.64601 2.21988 -0.52144
H 0.26119 2.41788 -0.81144
H -1.17361 2.30488 -1.28714
O -0.70691 -1.91322 2.57056
H -0.74161 -1.34672 1.75556
H -1.61011 -2.10682 2.74656
O -3.06571 -0.60672 0.28056
H -3.45851 -0.59842 -0.60144
H -2.12451 -0.73882 0.12256
